utils/examples/minimal_exampleV33.raw
0,     0.40, 33, 0, 1, 50.00     / PSS(R)E 33 RAW created by rawd33  WED, MAR 24 2021  15:55


     1,'            ',  20.0000,3,   1,   1,   1,1.02000,   0.0000,1.10000,0.90000,1.10000,0.90000
   101,'            ',   0.4000,1,   1,   1,   1,0.97309,   0.8580,1.10000,0.90000,1.10000,0.90000
   201,'            ',   0.4000,1,   1,   1,   1,1.01999,  -0.0015,1.10000,0.90000,1.10000,0.90000
 0 /End of Bus data, Begin Load data
   101,'1 ',1,   1,   1,     0.100,     0.050,     0.000,     0.000,     0.000,     0.000,   1,1,0
 0 /End of Load data, Begin Fixed shunt data
 0 /End of Fixed shunt data, Begin Generator data
 0 /End of Generator data, Begin Branch data
   101,   201,'1 ', 1.60500E-1, 2.07500E-2,   0.00000,    0.00,    0.00,    0.00,  0.00000,  0.00000,  0.00000,  0.00000,1,2,   0.00,   1,1.0000
 0 /End of Branch data, Begin Transformer data
     1,   201,     0,'1 ',1,1,1, 0.00000E+0, 0.00000E+0,2,'            ',1,   1,1.0000,   0,1.0000,   0,1.0000,   0,1.0000,'            '
 0.00000E+0, 1.00000E-4,     0.40
1.00000,  20.000,   0.000,     0.00,     0.00,     0.00, 0,      0, 1.10000, 0.90000, 1.10000, 0.90000,  33, 0, 0.00000, 0.00000,  0.000
1.00000,   0.400
 0 /End of Transformer data, Begin Area interchange data
 0 /End of Area interchange data, Begin Two-terminal dc line data
 0 /End of Two-terminal dc line data, Begin VSC dc line data
 0 /End of VSC dc line data, Begin Impedance correction table data
 0 /End of Impedance correction table data, Begin Multi-terminal dc line data
 0 /End of Multi-terminal dc line data, Begin Multi-section line data
 0 /End of Multi-section line data, Begin Zone data
 0 /End of Zone data, Begin Inter-area transfer data
 0 /End of Inter-area transfer data, Begin Owner data
 0 /End of Owner data, Begin FACTS device data
 0 /End of FACTS device data, Begin Switched shunt data
 0 /End of Switched shunt data, Begin GNE device data
 0 /End of GNE device data, Begin Induction machine data
 0 /End of Induction machine data
Q
